case9241pegase_SE.m
function mpc = case9241pegase_SE
%CASE9241PEGASE_SE

%% MATPOWER Case Format : Version 2
mpc.version = '2';

%%-----  Power Flow Data  -----%%
%% system MVA base
mpc.baseMVA = 100;

%% bus data
%	bus_i	type	Pd	Qd	Gs	Bs	area	Vm	Va	baseKV	zone	Vmax	Vmin
mpc.bus = [
	1	1	378.4	98.5	0	16.61	0	1.00759728	-36.5716869	220	6	1.1	0.9;
	2	2	0	0	0	0	0	1.031734	-8.43484047	154	1	1.1	0.9;
	3	1	151	48.8	0	4.69	0	1.01784198	-21.085326	220	5	1.1	0.9;
	4	1	171.41	23.4	0	2.1	0	1.02050104	-6.89240881	220	5	1.1	0.9;
	5	1	45.95	14	0	13.34	0	0.989942258	-48.5130021	220	6	1.1	0.9;
	6	2	0	0	0	0	0	1.038476	-41.380133	380	6	1.1	0.9;
	7	1	31.03	10.3	0	0.65	0	0.969174305	-33.3197766	110	21	1.1	0.9;
	8	2	0	0	0	0	0	1.023005	-17.1856232	154	1	1.1	0.9;
	9	1	14.3	2	0	1.91	0	1.03265809	-0.0581261816	154	1	1.1	0.9;
	10	1	134	24.7	0	12.44	0	1.03335216	-23.7384608	220	5	1.1	0.9;
	11	1	0	0	0	0	0	0.965105427	-28.1850451	150	9	1.1	0.9;
	12	1	-6.11	2	0	0.47	0	1.03450826	-23.1282932	150	9	1.1	0.9;
	13	1	-22.74	-8.32	0	6.5	0	1.01386587	-47.3076023	220	6	1.1	0.9;
	14	1	13.5	14.8	0	132.435168	0	1.14146942	-18.2913472	380	9	1.3	0.7;
	15	1	59.67	26.7	0	12.84	0	1.02164982	-48.5492231	220	4	1.1	0.9;
	16	1	30.6	4.3	0	5.15	0	1.03243068	9.65644085	154	1	1.1	0.9;
	17	1	67.68	12.1	0	2.18	0	1.01056359	7.67536504	220	3	1.1	0.9;
	18	2	0	0	0	0	0	1.026728	19.0699005	380	3	1.1	0.9;
	19	1	25.33	7.5	0	2.39	0	1.00510973	-35.5774402	110	12	1.1	0.9;
	20	1	1.4	0.2	0	4.93	0	1.02451664	10.2689371	154	1	1.1	0.9;
	21	1	161.2	39.3	0	30.71	0	1.03134093	-21.3458538	220	5	1.1	0.9;
	22	1	0	-0	0	0.85	0	1.03171319	-17.981898	220	5	1.1	0.9;
	23	1	19.62	7.1	0	1.15	0	1.02536072	-23.4499642	110	19	1.1	0.9;
	24	1	17.22	5.7	0	1.22	0	0.961065445	-29.6427008	110	21	1.1	0.9;
	25	2	0	0	0	0	0	1.028526	13.9195073	220	3	1.1	0.9;
	26	1	167.3	54.8	0	110.54	0	1.02961248	-3.18578801	380	5	1.1	0.9;
	27	1	-0	-0	0	14.82	0	1.08549628	15.0493581	380	13	1.1	0.9;
	28	1	0	0	0	0	0	1.0049378	-28.6214959	150	9	1.1	0.9;
	29	1	152.9	49.4	0	27.65	0	1.00479949	-13.7404363	380	5	1.1	0.9;
	30	1	-0	0	0	0.56	0	1.02353107	-26.4639751	150	9	1.1	0.9;
	31	1	69.68	43.2	0	6.3	0	0.905480542	-32.2231918	150	9	1.3	0.7;
	32	2	0	0	0	0	0	1.003223	-42.6765789	220	4	1.1	0.9;
	33	2	0	0	0	0	0	1.026534	-38.2998129	220	4	1.1	0.9;
	34	1	13.52	4.9	0	1.8	0	1.02846956	-22.0610241	110	19	1.1	0.9;
	35	1	10.51	3.5	0	0.31	0	1.02647308	-33.872284	110	12	1.1	0.9;
	36	1	-0	-0	0.12	15.34	0	1.04548826	-18.8057933	220	19	1.1	0.9;
	37	1	9.21	2.6	0	2	0	0.972197293	-27.2377598	110	18	1.1	0.9;
	38	1	42.75	12.8	0	13.3	0	1.02283606	27.5124217	220	8	1.1	0.9;
	39	2	0	0	0	0	0	1.003511	-37.9728824	150	10	1.1	0.9;
	40	1	16.02	4.54	0	0.1	0	0.999072494	-28.827714	110	23	1.1	0.9;
	41	1	27.9	4	0	4.23	0	1.00862562	-5.23575256	154	1	1.1	0.9;
	42	1	20.82	7.9	0	26.89	0	1.04239241	-48.8366779	380	4	1.1	0.9;
	43	1	12.6	1.8	0	2.03	0	1.02873905	-12.3138961	154	1	1.1	0.9;
	44	1	-0	0	0	7.27	0	1.04074115	-21.6151665	220	5	1.1	0.9;
	45	1	10.11	3.7	0	0.81	0	1.04806301	-22.6858758	110	19	1.1	0.9;
	46	1	10.01	2.7	0	1.14	0	0.958464824	-27.0537518	110	18	1.1	0.9;
	47	1	6.31	0	0	0.67	0	0.985856382	-25.5542734	110	18	1.1	0.9;
	48	1	2.9	0.9	0	0.6	0	1.04548774	-23.6835041	110	15	1.1	0.9;
	49	2	0	0	0	0	0	1.020323	-35.2712265	220	6	1.1	0.9;
	50	1	48.8	6.9	0	8.71	0	1.02500815	-0.86766083	154	1	1.1	0.9;
	51	2	0	0	0	0	0	1.006665	-47.8516846	220	4	1.1	0.9;
	52	1	127.6	31.8	0	20.51	0	1.01771905	0.956910291	150	8	1.1	0.9;
	53	1	48.65	16.1	0	7.14	0	1.05343233	-9.05979755	220	5	1.1	0.9;
	54	1	110.5	-26.8	0	16.37	0	1.02377862	-34.6658507	220	6	1.1	0.9;
	55	1	0	-0	0	1.23	0	0.99693454	10.6598573	220	3	1.1	0.9;
	56	1	140	79.7	0	6.5	0	1.01062209	-15.9208603	220	3	1.1	0.9;
	57	1	21.6	3	0	3.54	0	1.00653281	-6.10055643	154	1	1.1	0.9;
	58	1	0	0	0	2.31	0	1.02749116	-18.4264049	380	5	1.1	0.9;
	59	1	119.2	20.7	0	3.31	0	1.02675193	-23.7268642	220	5	1.1	0.9;
	60	1	0.24	-1.66	0	0.65	0	1.02435765	-17.6312769	110	18	1.1	0.9;
	61	1	-0	0	0	58.57	0	1.09274668	47.049828	380	3	1.1	0.9;
	62	1	-0	0	0	1.34	0	0.970170984	-25.438382	110	18	1.1	0.9;
	63	1	187.9	110.2	0	21.25	0	1.0190395	6.46200311	380	3	1.1	0.9;
	64	1	14.92	5.5	0	1.31	0	1.05820024	-21.0901264	110	15	1.1	0.9;
	65	1	-18.52	6.1	0	0.79	0	0.92019017	-30.7260091	150	9	1.1	0.9;
	66	1	4.61	1.7	0	2.32	0	1.07592329	-16.7114346	110	19	1.1	0.9;
	67	1	0	0	0.099501	82.133595	0	1.07686537	-20.36848	380	18	1.1	0.9;
	68	1	10.81	5.1	0	1.09	0	0.932261998	-30.203518	110	18	1.1	0.9;
	69	1	62.87	20.5	0	1.15	0	1.01688508	-0.256364761	150	8	1.1	0.9;
	70	1	0	0	0	2.64	0	1.02184183	-3.68508527	154	1	1.1	0.9;
	71	1	126.3	42.4	0	55.24	0	1.04566592	4.05721857	150	8	1.1	0.9;
	72	1	6.91	-4.6	0	5.75	0	1.00741428	-40.8167639	220	4	1.1	0.9;
	73	1	15.72	5.2	0	0.11	0	1.01129971	-36.0238873	110	12	1.1	0.9;
	74	1	0	0	0	0	0	1.04847347	-26.0903732	150	9	1.1	0.9;
	75	1	38.74	6.1	0	1.17	0	1.01904095	-52.9143372	220	4	1.1	0.9;
	76	1	22.13	10.7	0	14.21	0	1.02288083	27.5222751	220	8	1.1	0.9;
	77	1	-0	-0	0	0.73	0	1.00827026	-50.1591396	220	4	1.1	0.9;
	78	1	0	-0	0	0.83	0	0.981822892	-18.5690367	110	18	1.1	0.9;
	79	1	138.8	136.7	0	8.76	0	1.01437009	14.7964426	380	3	1.1	0.9;
	80	2	0	0	0	0	0	1.068393	-23.9456958	220	23	1.1	0.9;
	81	1	67.76	19.18	0	1.47	0	1.01092554	62.1034555	150	1	1.1	0.9;
	82	1	22.02	5.1	0	0.69	0	1.03233084	-31.3925881	110	1	1.1	0.9;
	83	1	0	0	0	6.62	0	0.980399611	14.5634385	220	3	1.1	0.9;
	84	1	1	0.3	0	0.19	0	1.01810386	-23.6832937	110	19	1.1	0.9;
	85	1	20.9	3	0	5.74	0	1.02207122	20.0067913	154	1	1.1	0.9;
	86	1	0	0	0	0.12	0	1.05108422	-21.3964228	150	9	1.1	0.9;
	87	1	21.52	5.1	0	0.5	0	1.0178895	-12.7159915	110	18	1.1	0.9;
	88	1	71.98	28.8	0	11	0	1.00674716	-36.1969114	220	6	1.1	0.9;
	89	1	0	0	0.199111	4.530599	0	0.99105946	-2.195772	380	2	1.1	0.9;
	90	1	363.25	115.39	0	3.95	0	1.04205795	-27.3398999	220	5	1.1	0.9;
	91	1	-0	0	0	0.02	0	1.02704383	1.91401951	150	8	1.1	0.9;
	92	1	192.9	73.3	0	20.75	0	1.02112208	4.75405718	380	3	1.1	0.9;
	93	1	17.52	6.3	0	0.26	0	1.05866003	-18.7302271	110	19	1.1	0.9;
	94	1	33.14	12	0	0.65	0	1.00796493	-21.5734642	110	19	1.1	0.9;
	95	1	40.45	25	0	9.82	0	0.98000828	-27.0691736	150	9	1.1	0.9;
	96	1	193.17	53.37	0	4.58	0	1.03674836	-14.9550097	220	5	1.1	0.9;
	97	1	0	0	0	9.38	0	1.05333142	3.44527425	380	1	1.1	0.9;
	98	1	90.7	25.5	0	3.11	0	1.04773854	-1.75795541	220	3	1.1	0.9;
	99	1	176.3	-58.9	0	24.77	0	1.02505089	-32.392776	380	6	1.1	0.9;
	100	1	35.94	22.3	0	0	0	1.03386259	-26.7676744	150	9	1.1	0.9;
	101	1	-0	0	0	0.29	0	0.964840661	-28.1965612	150	9	1.1	0.9;
	102	1	0	-0	0	3.77	0	1.00400815	-49.7224639	220	6	1.1	0.9;
	103	1	65.07	40.3	0	5.43	0	0.992021813	-31.0096578	150	9	1.1	0.9;
	104	1	51.36	-8.8	0	2.15	0	0.965338326	-54.5938803	220	6	1.1	0.9;
	105	1	-0	-0	0	82.55	0	1.03670236	-33.6901867	380	6	1.1	0.9;
	106	1	0	-0	0	31.19	0	1.16240118	-19.3894811	380	23	1.3	0.7;
	107	2	0	0	0	0	0	1.083135	42.7453459	380	3	1.3	0.7;
	108	1	3.8	1.3	0	0.4	0	1.00519175	-15.6211808	110	18	1.1	0.9;
	109	1	137	19.5	0	4.9	0	1.00485771	-8.30968851	154	1	1.1	0.9;
	110	1	0	0	0	0	0	0.994256365	-28.851949	150	9	1.1	0.9;
	111	1	61.07	36	0	3.09	0	1.04847141	-23.0705474	220	11	1.1	0.9;
	112	1	0	0	0	3.24	0	1.02832841	-8.86079415	220	3	1.1	0.9;
	113	1	-0	-0	0	6.532711	0	1.02741017	-13.7797312	380	5	1.1	0.9;
	114	1	55.7	7.9	0	4.21	0	1.0265084	13.3749751	154	1	1.1	0.9;
	115	1	0	-0	0	4.21	0	1.06162096	-19.1619752	220	5	1.1	0.9;
	116	1	1.8	0.7	0	0.3	0	1.03875731	-20.1275317	110	19	1.1	0.9;
	117	1	40.04	16	0	0.52	0	1.00245603	-22.0462627	110	18	1.1	0.9;
	118	1	-0	0	0	36.562834	0	1.02392203	-11.0817323	380	5	1.1	0.9;
	119	1	0	0	0	0.09	0	1.06662324	-18.0346329	150	9	1.1	0.9;
	120	1	140.6	20.1	0	13.81	0	1.01768816	-20.9184435	154	1	1.1	0.9;
	121	1	45.15	14.1	0	0.19	0	1.06168355	-22.8246059	110	15	1.1	0.9;
	122	1	-0	0	0	5.75	0	1.00265873	9.56541584	220	3	1.1	0.9;
	123	2	0	0	0	0	0	1.041503	-20.0787055	220	11	1.1	0.9;
	124	2	0	0	0	0	0	1.077112	8.57109101	220	5	1.1	0.9;
	125	1	3.42	2.68	0	1.46	0	1.02228181	-17.66724	110	18	1.1	0.9;
	126	1	0	-0	0	2.64	0	1.00983923	7.23219124	154	1	1.1	0.9;
	127	1	-0	-0	0	4.3	0	1.0217565	-27.6339016	220	6	1.1	0.9;
	128	1	23.73	12.7	0	0.52	0	1.01520017	-15.3810928	220	5	1.1	0.9;
	129	1	121.9	7.4	0	1.34	0	1.01926883	-11.3687514	220	3	1.1	0.9;
	130	1	-0	0	0.135375	47.750675	0	1.0579505	-47.0267833	380	10	1.1	0.9;
	131	1	47.35	16.4	0	4.08	0	1.03251909	-37.1745707	110	22	1.1	0.9;
	132	1	0	-0	0	21.39	0	1.06240746	-43.6569422	380	1	1.1	0.9;
	133	1	38.14	12.5	0	6.28	0	1.02144514	2.54325908	150	8	1.1	0.9;
	134	1	54.2	7.8	0	94.9	0	1.01293164	9.77962306	400	1	1.1	0.9;
	135	1	130.6	84.9	0	4.22	0	1.02197469	-21.0797135	220	7	1.1	0.9;
	136	1	7.91	2.6	0	0.74	0	1.00648546	-33.5345064	110	12	1.1	0.9;
	137	1	42.1	74.61	0	37.58	0	1.00306402	62.3843548	150	1	1.1	0.9;
	138	1	-75.38	7.8	0	29.9	0	1.06747202	-41.6744796	380	10	1.1	0.9;
	139	1	-0	-0	0	36.92	0	1.01303453	18.139441	380	8	1.1	0.9;
	140	1	0	0	0	4.14	0	1.02628425	18.7021802	220	8	1.1	0.9;
	141	2	0	0	0	0	0	1.050716	-0.390090246	220	13	1.1	0.9;
	142	2	0	0	0	0	0	1.042299	-30.116607	220	6	1.1	0.9;
	143	1	0	0	0	0	0	1.02234543	5.27833998	150	8	1.1	0.9;
	144	1	0	0	0	98.53	0	1.06386276	20.1372473	380	14	1.1	0.9;
	145	1	38.34	5.6	0	7.64	0	1.03823622	-8.85209342	220	5	1.1	0.9;
	146	1	269.6	65.7	0	0	0	1.08564056	-23.3949151	120	20	1.3	0.7;
	147	2	0	0	0	0	0	1.058041	-12.4223676	220	7	1.1	0.9;
	148	1	32.34	12	0	6.1	0	1.03462479	-7.91283905	220	5	1.1	0.9;
	149	1	100.1	45.1	0	1.11	0	1.02168389	-40.1274748	380	6	1.1	0.9;
	150	2	0	0	0	0	0	1.062129	2.64445269	220	5	1.1	0.9;
	151	2	0	0	0	0	0	1.013748	-20.4900713	154	1	1.1	0.9;
	152	1	7	1	0	4.69	0	1.05033193	-2.22927869	154	1	1.1	0.9;
	153	1	-0	0	0	0.56	0	1.01377786	-29.2664874	150	7	1.1	0.9;
	154	1	0	0	0	1.29	0	1.01673493	-37.0620609	110	12	1.1	0.9;
	155	1	-0	-0	0	1.7	0	1.01983248	-26.7083271	110	21	1.1	0.9;
	156	1	40.34	25	0	1.14	0	0.953090655	-28.6333604	150	9	1.1	0.9;
	157	1	9.21	3.3	0	1.2	0	1.0146571	-10.8316623	110	19	1.1	0.9;
	158	1	166	60.3	0	0.57	0	1.01503742	8.00379145	220	3	1.1	0.9;
	159	1	0	-0	0	0.1	0	1.0213361	-26.5114453	150	9	1.1	0.9;
	160	1	79.4	11.3	0	4.92	0	1.03101391	4.40294473	154	1	1.1	0.9;
	161	1	-0	-0	0	0.16	0	1.09100264	-24.726718	150	9	1.1	0.9;
	162	1	0	0	0	66.65	0	1.05231134	-14.811844	380	6	1.1	0.9;
	163	1	147.76	32.73	0	8.34	0	1.04545496	-10.119085	220	5	1.1	0.9;
	164	1	0	-0	0	5.17	0	1.02083965	0.0930300135	150	8	1.1	0.9;
	165	1	26.8	-3.7	0	51.261678	0	1.07315875	-20.8846142	380	9	1.1	0.9;
	166	2	0	0	0	0	0	1.040747	13.4804642	220	3	1.1	0.9;
	167	1	257.5	131.1	0	1.08	0	1.03977702	-3.42759977	220	3	1.1	0.9;
	168	1	16.7	2.4	0	6.09	0	1.03317659	15.6380895	154	1	1.1	0.9;
	169	1	0	0	0	1.91	0	1.04553073	-26.256838	150	9	1.1	0.9;
	170	1	-0	-0	0	2.35	0	1.01145081	36.6506439	220	1	1.1	0.9;
	171	1	100.8	13.2	0	5.24	0	1.06196941	-24.8472843	220	5	1.1	0.9;
	172	1	111.7	10.96	0	4.22	0	1.01011346	-46.9480271	220	4	1.1	0.9;
	173	1	90.38	-5.05	0	8.49	0	1.05470054	16.1913503	220	13	1.1	0.9;
	174	1	370.5	-17	0	9.91	0	1.07089486	-27.4626525	220	5	1.1	0.9;
	175	1	9.91	3.2	0	0.67	0	1.00379173	-38.2942682	110	12	1.1	0.9;
	176	1	-0.69	-5.46	0	5.07	0	1.04084508	-25.3607673	150	9	1.1	0.9;
	177	1	94.9	36.2	0	16.46	0	0.969765204	-43.0363448	220	10	1.1	0.9;
	178	1	81.09	48	0	0.03	0	1.01321215	-27.1679543	150	9	1.1	0.9;
	179	2	0	0	0	0	0	1.043661	-49.6453262	380	4	1.1	0.9;
	180	1	0	0	0	0.54	0	1.02953181	-25.4413724	110	21	1.1	0.9;
	181	1	54.96	16.9	0	3.37	0	1.040587	-36.3836967	110	22	1.1	0.9;
	182	1	19.32	26	0	0.69	0	1.03556112	40.2047713	220	3	1.1	0.9;
	183	1	0	0	0	1.83	0	1.03146511	-25.9863434	150	9	1.1	0.9;
	184	1	-0	-0	0	2.42	0	1.03753632	-11.1927746	220	5	1.1	0.9;
	185	1	20.9	3	0	4.11	0	1.007995	-3.63899714	154	1	1.1	0.9;
	186	1	19.92	6.6	0	0.56	0	1.00964544	-27.7468983	110	21	1.1	0.9;
	187	1	57.16	2	0	1.48	0	1.00247263	-35.6435085	110	22	1.1	0.9;
	188	1	36.84	13.9	0	3.3	0	1.01521804	-19.1199459	220	5	1.1	0.9;
	189	1	-15.04	-5.12	0	0.43	0	1.00122972	-25.4810806	110	18	1.1	0.9;
	190	2	0	0	0	0	0	1.025544	-18.8741628	110	19	1.1	0.9;
	191	1	0	-0	0	14.19	0	1.01622194	-35.6925379	220	6	1.1	0.9;
	192	2	0	0	0	0	0	1.048355	66.7071156	380	3	1.1	0.9;
	193	1	119.9	3.7	0	3.33	0	1.03133223	25.5265123	220	3	1.1	0.9;
	194	2	0	0	0	0	0	1.02931	13.7184547	150	8	1.1	0.9;
	195	1	73.14	21.55	0	8.52	0	1.04891158	-8.4949417	220	5	1.1	0.9;
	196	1	0	-0	0	12.48	0	1.06884835	-25.7587175	220	5	1.1	0.9;
	197	2	0	0	0	0	0	1.099985	46.0453451	380	3	1.1	0.9;
	198	1	39.74	11.8	0	1.44	0	1.01128647	-15.6481561	220	5	1.1	0.9;
	199	1	86.8	28.4	0	1.34	0	1.01768519	1.17683501	150	8	1.1	0.9;
	200	1	22.42	2.1	0	0.19	0	1.01097722	62.2625964	150	1	1.1	0.9;
...
];

%%  PMU voltage data (confidence intervals around measurements)
%	bus_i	VR_MAX	VR_MIN	VI_MAX	VI_MIN
mpc.Vpmu = [
	1	0.809213	0.809213	-0.600355	-0.600355;
	5	0.656191	0.655346	-0.741068	-0.742056;
	6	0.77921	0.77921	-0.686486	-0.686486;
	12	0.951362	0.951362	-0.406346	-0.406346;
	13	0.687464	0.687464	-0.745196	-0.745196;
	14	1.08379	1.08379	-0.358249	-0.358249;
	15	0.676836	0.675808	-0.765195	-0.766217;
	16	1.0178	1.0178	0.17318	0.17318;
	18	0.970382	0.970382	0.335454	0.335454;
	22	0.981318	0.981318	-0.318507	-0.318507;
	24	0.835288	0.835288	-0.475333	-0.475333;
	31	0.766016	0.766016	-0.482819	-0.482819;
	38	0.907809	0.906538	0.472796	0.472204;
	43	1.00507	1.00507	-0.219396	-0.219396;
	44	0.968323	0.966934	-0.38314	-0.38361;
	51	0.676057	0.675118	-0.74585	-0.746832;
	55	0.97973	0.97973	0.184411	0.184411;
	64	0.987992	0.986581	-0.380499	-0.381076;
	71	1.04305	1.04305	0.0739836	0.0739836;
	74	0.941636	0.941636	-0.461106	-0.461106;
	83	0.948899	0.948899	0.246523	0.246523;
	84	0.932359	0.932359	-0.408953	-0.408953;
	87	0.992924	0.992924	-0.224056	-0.224056;
	91	1.02717	1.02572	0.03433	0.0342768;
	94	0.937354	0.937354	-0.370623	-0.370623;
	97	1.05143	1.05143	0.0633001	0.0633001;
	103	0.850243	0.850243	-0.511072	-0.511072;
	113	0.99784	0.99784	-0.244719	-0.244719;
	114	0.998666	0.998666	0.237455	0.237455;
	118	1.00483	1.00483	-0.196807	-0.196807;
	119	1.01494	1.01346	-0.329984	-0.330438;
	122	0.988718	0.988718	0.166615	0.166615;
	124	1.06583	1.06434	0.160653	0.160403;
	125	0.974066	0.974066	-0.310251	-0.310251;
	128	0.978839	0.978839	-0.26927	-0.26927;
	133	1.02044	1.02044	0.0453253	0.0453253;
	136	0.838959	0.838959	-0.556022	-0.556022;
	137	0.465237	0.464668	0.8894	0.888143;
	140	0.972094	0.972094	0.329077	0.329077;
	144	0.999505	0.998132	0.366507	0.365999;
	145	1.02659	1.02524	-0.159672	-0.159881;
	147	1.03327	1.03327	-0.227602	-0.227602;
	160	1.02869	1.02723	0.0792045	0.079101;
	161	0.990972	0.990972	-0.456356	-0.456356;
	163	1.0299	1.02855	-0.18354	-0.183801;
	167	1.03792	1.03792	-0.0621654	-0.0621654;
	170	0.811477	0.811477	0.60377	0.60377;
	171	0.963664	0.963664	-0.446241	-0.446241;
	173	1.01287	1.01287	0.294099	0.294099;
	175	0.787814	0.787814	-0.62205	-0.62205;
	177	0.708822	0.708822	-0.661828	-0.661828;
	179	0.675789	0.675789	-0.795323	-0.795323;
	180	0.929693	0.929693	-0.442274	-0.442274;
	186	0.894226	0.892955	-0.469719	-0.470379;
	187	0.814668	0.814668	-0.584181	-0.584181;
	192	0.414553	0.414553	0.962909	0.962909;
	193	0.93066	0.93066	0.444431	0.444431;
	198	0.973804	0.973804	-0.272774	-0.272774;
	199	1.01747	1.01747	0.0209014	0.0209014;
	204	0.982858	0.982858	-0.38257	-0.38257;
	214	1.04422	1.04267	0.277792	0.277387;
	218	1.02363	1.02363	-0.226217	-0.226217;
	229	0.935692	0.935692	-0.460827	-0.460827;
	230	0.68948	0.68948	-0.731107	-0.731107;
	231	0.923535	0.923535	0.416004	0.416004;
	233	0.839514	0.838349	-0.447721	-0.448311;
	234	0.943825	0.943825	-0.363876	-0.363876;
	235	0.771958	0.770848	-0.618108	-0.618904;
	238	0.706476	0.706476	-0.766913	-0.766913;
	242	1.03408	1.03408	-0.0348083	-0.0348083;
	247	0.91942	0.91942	-0.362028	-0.362028;
	252	0.708136	0.708136	0.764607	0.764607;
	254	0.966315	0.964977	-0.454865	-0.455555;
	255	1.03139	1.03003	-0.245442	-0.245752;
	257	0.713798	0.713798	-0.738526	-0.738526;
	260	1.00558	1.00417	-0.196963	-0.197247;
	265	0.954174	0.954174	-0.447484	-0.447484;
	271	1.02719	1.02567	-0.126135	-0.126313;
	285	0.402304	0.402304	0.951466	0.951466;
	291	1.03468	1.03313	0.0913894	0.0912599;
	294	1.00337	1.00337	-0.00194584	-0.00194584;
	304	0.579385	0.578632	-0.801933	-0.803075;
	305	0.900907	0.900907	-0.568243	-0.568243;
	306	0.973705	0.973705	-0.319335	-0.319335;
	310	1.09773	1.09773	-0.360207	-0.360207;
	318	0.879444	0.878315	-0.466496	-0.467151;
	319	0.96464	0.96464	-0.328057	-0.328057;
	320	0.989981	0.989981	0.216303	0.216303;
	322	0.68455	0.683544	-0.673533	-0.674481;
	324	0.63884	0.637937	0.850856	0.849761;
	325	1.00962	1.00962	0.00154459	0.00154459;
	327	1.00011	1.00011	-0.209003	-0.209003;
	330	1.03329	1.03329	0.206366	0.206366;
	331	0.855592	0.855592	-0.466929	-0.466929;
	332	0.94867	0.947444	-0.408594	-0.40917;
	334	1.01839	1.01839	-0.0803123	-0.0803123;
	335	0.837836	0.837836	-0.46091	-0.46091;
	336	0.959263	0.959263	-0.309465	-0.309465;
	341	0.910057	0.910057	-0.454316	-0.454316;
	344	1.02906	1.02757	-0.0128895	-0.0129094;
	346	0.970453	0.970453	-0.367186	-0.367186;
	351	0.966121	0.966121	0.341354	0.341354;
	356	1.00074	0.999368	-0.309853	-0.310275;
	357	0.881699	0.881699	-0.500958	-0.500958;
	360	1.03464	1.03317	0.220833	0.220514;
	361	1.00884	1.00732	0.32622	0.325787;
	373	0.869988	0.869988	-0.44567	-0.44567;
	375	0.607883	0.607883	0.810995	0.810995;
	379	0.87297	0.871742	-0.479407	-0.480121;
	381	0.790845	0.790845	-0.525655	-0.525655;
	385	0.675341	0.674345	-0.790465	-0.791661;
	386	0.986062	0.986062	0.401728	0.401728;
	389	0.768167	0.768167	-0.667605	-0.667605;
	390	1.02404	1.02252	-0.316761	-0.317191;
	395	0.99697	0.99697	0.271566	0.271566;
	396	0.759774	0.759774	-0.48783	-0.48783;
	403	0.951088	0.949871	-0.4727	-0.473439;
	404	0.92639	0.92639	-0.413266	-0.413266;
	407	0.987388	0.987388	0.198872	0.198872;
	410	0.92356	0.922147	-0.46049	-0.46107;
	411	0.838605	0.838605	-0.602292	-0.602292;
	413	1.04296	1.04296	-0.106863	-0.106863;
	416	1.03906	1.03906	-0.111412	-0.111412;
	424	0.83111	0.83111	0.64371	0.64371;
	425	1.01388	1.01261	0.135488	0.135281;
	426	0.987489	0.987489	-0.321995	-0.321995;
	427	0.872467	0.872467	-0.627903	-0.627903;
	429	0.671042	0.670089	-0.758743	-0.759798;
	434	1.03299	1.03299	0.101888	0.101888;
	436	1.06242	1.06242	-0.355969	-0.355969;
	438	0.514557	0.514557	0.902297	0.902297;
	439	0.50416	0.50416	0.946604	0.946604;
	444	1.01037	1.01037	-0.205358	-0.205358;
	446	0.931681	0.931681	-0.410689	-0.410689;
	454	1.01539	1.01539	0.226072	0.226072;
	458	0.947933	0.946634	-0.418834	-0.419386;
	461	0.868655	0.868655	-0.516247	-0.516247;
	464	1.01865	1.01865	-0.24862	-0.24862;
	470	0.947932	0.947932	-0.441621	-0.441621;
	480	1.03685	1.03685	-0.134359	-0.134359;
	481	0.682648	0.681773	-0.759693	-0.760729;
	487	1.01451	1.01451	-0.0129706	-0.0129706;
	488	1.03357	1.03357	0.0767389	0.0767389;
	494	0.883953	0.882656	-0.455824	-0.456479;
	500	1.01162	1.0101	-0.257543	-0.257905;
	501	0.922053	0.920677	-0.503845	-0.504518;
	504	0.873045	0.873045	-0.480638	-0.480638;
	506	1.04565	1.04565	-0.160274	-0.160274;
	508	0.927456	0.927456	-0.386222	-0.386222;
	512	0.908293	0.908293	-0.432178	-0.432178;
	513	1.02342	1.02342	-0.132117	-0.132117;
	514	0.825738	0.825738	-0.594087	-0.594087;
	521	0.921431	0.921431	-0.401861	-0.401861;
	523	1.03361	1.03361	0.13435	0.13435;
	528	0.644467	0.643559	-0.763364	-0.764396;
	540	0.95401	0.95401	0.195282	0.195282;
	541	1.02862	1.02862	0.140663	0.140663;
	542	1.01215	1.01215	-0.341004	-0.341004;
	544	0.638726	0.637861	-0.812885	-0.814088;
	546	0.910034	0.910034	-0.584871	-0.584871;
	547	0.826266	0.826266	-0.585981	-0.585981;
	548	0.983428	0.983428	0.303409	0.303409;
	552	0.704335	0.703353	-0.661863	-0.662803;
	553	0.947365	0.947365	0.397581	0.397581;
	556	0.957449	0.956091	-0.389285	-0.389808;
	558	0.969117	0.969117	0.309706	0.309706;
	559	1.0327	1.0327	0.112536	0.112536;
	561	1.02578	1.02578	-0.201402	-0.201402;
	562	1.0343	1.0343	-0.0520337	-0.0520337;
	568	0.932146	0.930663	-0.409083	-0.409634;
	577	0.921659	0.921659	0.481408	0.481408;
	584	1.02118	1.02118	0.0964314	0.0964314;
	595	0.648954	0.648954	-0.789164	-0.789164;
	598	0.900051	0.898784	-0.40939	-0.409997;
	599	0.930027	0.930027	-0.335729	-0.335729;
	603	1.06681	1.06681	-0.365193	-0.365193;
	605	1.01924	1.01772	-0.0345042	-0.0345496;
	607	1.01921	1.01921	-0.167082	-0.167082;
	611	1.0006	1.0006	-0.195146	-0.195146;
	613	1.01259	1.01135	0.13167	0.131491;
	614	0.802508	0.802508	-0.542031	-0.542031;
	616	1.0195	1.0195	-0.228701	-0.228701;
	617	0.891168	0.891168	-0.429092	-0.429092;
	622	0.536187	0.536187	0.924961	0.924961;
	626	0.808363	0.807243	-0.46871	-0.469374;
	628	0.806098	0.806098	-0.560929	-0.560929;
	630	1.01554	1.01554	0.149807	0.149807;
	633	0.851787	0.851787	-0.439408	-0.439408;
	634	1.01092	1.01092	0.12457	0.12457;
	638	1.01146	1.01146	0.29274	0.29274;
	640	0.805443	0.804304	0.619899	0.619057;
	643	1.02345	1.02192	-0.00355591	-0.00356047;
	649	0.67865	0.67865	-0.764665	-0.764665;
	653	0.953129	0.953129	-0.265818	-0.265818;
	654	0.930872	0.930872	-0.408196	-0.408196;
	660	0.769462	0.769462	-0.66953	-0.66953;
	662	1.00265	1.00114	0.214076	0.213781;
	667	0.846836	0.846836	-0.537003	-0.537003;
	668	1.00096	0.999439	-0.010439	-0.0104541;
	671	0.922424	0.922424	-0.404163	-0.404163;
...
];

%% PMU current injection data (confidence intervals around measurements)
%	bus_i	IR_MAX	IR_MIN	II_MAX	II_MIN
mpc.Ipmu = [
	1	-2.4336	-2.4336	3.02271	3.02271;
	5	-0.201426	-0.2017	0.441705	0.441102;
	6	3.65627	3.65627	-6.0613	-6.0613;
	12	0.0619087	0.0619087	-0.00541996	-0.00541996;
	13	0.0917665	0.0917665	-0.220497	-0.220497;
	14	-0.0716	-0.0716	0.160225	0.160225;
	15	-0.190614	-0.190867	0.611186	0.610332;
	16	-0.299175	-0.299175	-0.00865693	-0.00865693;
	18	5.00239	5.00239	-0.534295	-0.534295;
	22	     0	0	     0	0;
	24	-0.126393	-0.126393	0.140166	0.140166;
	31	-0.396614	-0.396614	0.813942	0.813942;
	38	-0.428229	-0.428757	-0.0820208	-0.0821336;
	43	-0.115931	-0.115931	0.0432156	0.0432156;
	44	7.78263e-10	-6.40027e-10	7.02594e-10	-6.10811e-10;
	51	-0.991701	-0.993118	1.03844	1.03701;
	55	    -0	-0	     0	0;
	64	-0.112777	-0.112919	0.0992914	0.0991505;
	71	-1.2335	-1.2335	0.319009	0.319009;
	74	     0	0	     0	0;
	83	     0	0	     0	0;
	84	-0.00781134	-0.00781134	0.00664387	0.00664387;
	87	-0.195204	-0.195204	0.0954118	0.0954118;
	91	7.51904e-10	-6.0861e-10	7.11453e-10	-6.84069e-10;
	94	-0.261975	-0.261975	0.231603	0.231603;
	97	     0	0	     0	0;
	103	-0.352899	-0.352899	0.686107	0.686107;
	113	     0	0	     0	0;
	114	-0.545701	-0.545701	-0.0506471	-0.0506471;
	118	     0	0	     0	0;
	119	6.75141e-10	-6.56621e-10	7.47655e-10	-6.95611e-10;
	122	     0	0	     0	0;
	124	8.00869	7.99805	0.556202	0.555447;
	125	-0.0239205	-0.0239205	0.0351325	0.0351325;
	128	-0.192194	-0.192194	0.182616	0.182616;
	133	-0.378455	-0.378455	0.105686	0.105686;
	136	-0.0512383	-0.0512383	0.0649491	0.0649491;
	137	-0.853083	-0.854266	-0.027092	-0.0271292;
	140	     0	0	     0	0;
	144	6.01795e-10	-7.73266e-10	7.08512e-10	-6.21995e-10;
	145	-0.356362	-0.356866	0.110193	0.110054;
	147	-0.179829	-0.179829	-0.113409	-0.113409;
	160	-0.775661	-0.776811	0.0501917	0.0501165;
	161	     0	0	     0	0;
	163	-1.33537	-1.33733	0.556909	0.556091;
	167	-2.39668	-2.39668	1.40665	1.40665;
	170	     0	0	     0	0;
	171	-0.809085	-0.809085	0.511638	0.511638;
	173	-0.809585	-0.809585	-0.284932	-0.284932;
	175	-0.0577282	-0.0577282	0.0862003	0.0862003;
	177	-0.460516	-0.460516	0.940692	0.940692;
	179	-1.93695	-1.93695	0.607339	0.607339;
	180	     0	0	     0	0;
	186	-0.144086	-0.144273	0.149814	0.149613;
	187	-0.451744	-0.451744	0.348486	0.348486;
	192	0.626253	0.626253	1.14069	1.14069;
	193	-1.06455	-1.06455	-0.468613	-0.468613;
	198	-0.346927	-0.346927	0.218352	0.218352;
	199	-0.858468	-0.858468	0.261488	0.261488;
	204	     0	0	     0	0;
	214	-1.3579	-1.35985	-1.2024	-1.2042;
	218	-0.61929	-0.61929	0.284569	0.284569;
	229	-3.27229	-3.27229	 2.613	2.613;
	230	-0.875183	-0.875183	1.25464	1.25464;
	231	0.00522491	0.00522491	-0.00847441	-0.00847441;
	233	-0.00436109	-0.00436703	0.0476606	0.0475963;
	234	-0.145508	-0.145508	0.0815267	0.0815267;
	235	-0.240613	-0.240905	0.250252	0.249927;
	238	     0	0	     0	0;
	242	-1.61592	-1.61592	0.230396	0.230396;
	247	     0	0	     0	0;
	252	    -0	-0	     0	0;
	254	7.49499e-10	-7.87514e-10	7.47537e-10	-6.41699e-10;
	255	3.95609	3.95035	-0.639974	-0.640753;
	257	-0.599166	-0.599166	0.963157	0.963157;
	260	-2.00015	-2.00301	0.796232	0.795061;
	265	-2.89218	-2.89218	1.66343	1.66343;
	271	-0.895869	-0.896976	0.371602	0.371034;
	285	    -0	-0	     0	0;
	291	6.33788e-10	-6.42305e-10	7.9912e-10	-6.43195e-10;
	294	2.49109	2.49109	-0.261393	-0.261393;
	304	-0.00890558	-0.00891736	0.0210005	0.0209705;
	305	-0.757796	-0.757796	0.611175	0.611175;
	306	     0	0	     0	0;
	310	1.06003	1.06003	-6.38015	-6.38015;
	318	7.14827e-10	-6.25765e-10	6.74375e-10	-6.55424e-10;
	319	-1.35556	-1.35556	0.686993	0.686993;
	320	16.5258	16.5258	5.73182	5.73182;
	322	-1.62826	-1.63051	2.85609	2.85168;
	324	0.833482	0.832206	0.480548	0.479889;
	325	-0.211874	-0.211874	-0.0562753	-0.0562753;
	327	     0	0	     0	0;
	330	-1.01553	-1.01553	-0.177656	-0.177656;
	331	-0.0242273	-0.0242273	0.0412725	0.0412725;
	332	-0.225114	-0.225416	0.21228	0.211955;
	334	-1.25342	-1.25342	0.280506	0.280506;
	335	     0	0	     0	0;
	336	-0.0415448	-0.0415448	0.0134026	0.0134026;
	341	     0	0	     0	0;
	344	-3.60421	-3.60948	1.48063	1.47871;
	346	-1.61554	-1.61554	1.10897	1.10897;
	351	0.00765523	0.00765523	-0.017272	-0.017272;
	356	-1.28023	-1.28207	0.418489	0.417916;
	357	-0.29429	-0.29429	0.539217	0.539217;
	360	-0.351267	-0.351728	0.0362346	0.0361822;
	361	2.29599	2.29265	0.215511	0.215224;
	373	     0	0	     0	0;
	375	    -0	-0	     0	0;
	379	-0.171354	-0.171591	0.185001	0.184751;
	381	-0.386324	-0.386324	0.25678	0.25678;
	385	7.66914e-10	-7.5436e-10	7.27023e-10	-7.93992e-10;
	386	    -0	-0	     0	0;
	389	0.396251	0.396251	-0.577607	-0.577607;
	390	-0.220973	-0.221283	0.167305	0.167089;
	395	     0	0	     0	0;
	396	     0	0	     0	0;
	403	6.67722e-10	-6.02672e-10	6.09606e-10	-7.89724e-10;
	404	-0.0333373	-0.0333373	0.0174626	0.0174626;
	407	-0.695844	-0.695844	-0.0398867	-0.0398867;
	410	-1.26315	-1.26503	1.17783	1.17623;
	411	0.249366	0.249366	-0.24885	-0.24885;
	413	2.16407	2.16407	-0.495554	-0.495554;
	416	-0.658728	-0.658728	0.200557	0.200557;
	424	6.48226	6.48226	1.51547	1.51547;
	425	6.26263e-10	-7.15318e-10	7.82644e-10	-7.59719e-10;
	426	-1.10739	-1.10739	0.426915	0.426915;
	427	     0	0	     0	0;
	429	-0.341473	-0.341985	0.0529113	0.0528412;
	434	-0.0229073	-0.0229073	-0.0425672	-0.0425672;
	436	-0.131613	-0.131613	0.12128	0.12128;
	438	0.45983	0.45983	0.5579	0.5579;
	439	1.03501	1.03501	2.70883	2.70883;
	444	     0	0	     0	0;
	446	-0.731655	-0.731655	0.788019	0.788019;
	454	-0.229486	-0.229486	-0.0176093	-0.0176093;
	458	6.84677e-10	-7.57702e-10	7.82584e-10	-7.41337e-10;
	461	     0	0	     0	0;
	464	-0.412575	-0.412575	0.109532	0.109532;
	470	     0	0	     0	0;
	480	-0.0537576	-0.0537576	0.0175751	0.0175751;
	481	6.21814e-10	-7.96373e-10	7.56483e-10	-6.31399e-10;
	487	-0.86373	-0.86373	0.134256	0.134256;
	488	-0.0656887	-0.0656887	0.0233745	0.0233745;
	494	6.00326e-10	-6.09158e-10	6.12421e-10	-7.19157e-10;
	500	-1.25636	-1.25825	0.672223	0.671303;
	501	7.69159e-10	-6.76334e-10	6.02744e-10	-7.73789e-10;
	504	-0.133668	-0.133668	0.144604	0.144604;
	506	     0	0	     0	0;
	508	-0.190139	-0.190139	0.162742	0.162742;
	512	-0.0787997	-0.0787997	0.068321	0.068321;
	513	-0.531032	-0.531032	0.23564	0.23564;
	514	-0.0588884	-0.0588884	0.0799102	0.0799102;
	521	-0.113145	-0.113145	0.106865	0.106865;
	523	-1.8991	-1.8991	0.47586	0.47586;
	528	7.93162e-10	-7.55263e-10	6.85531e-10	-6.12979e-10;
	540	-1.85641	-1.85641	0.522506	0.522506;
	541	1.1106	1.1106	0.281658	0.281658;
	542	-0.0156531	-0.0156531	0.0121897	0.0121897;
	544	-0.17433	-0.17456	0.843332	0.84213;
	546	     0	0	     0	0;
	547	-0.161867	-0.161867	0.284232	0.284232;
	548	-0.312671	-0.312671	-0.00596623	-0.00596623;
	552	-0.718129	-0.719118	1.96763	1.96481;
	553	     0	0	     0	0;
	556	-0.115187	-0.115338	0.141092	0.140908;
	558	0.0123668	0.0123668	-0.0328856	-0.0328856;
	559	-0.421633	-0.421633	0.114798	0.114798;
	561	     0	0	     0	0;
	562	     0	0	     0	0;
	568	-0.152975	-0.153171	0.145752	0.145548;
	577	0.00556066	0.00556066	-0.00794551	-0.00794551;
	584	-1.53392	-1.53392	0.564135	0.564135;
	595	-0.255529	-0.255529	0.392407	0.392407;
	598	7.21907e-10	-6.06543e-10	6.44138e-10	-6.37204e-10;
	599	     0	0	     0	0;
	603	-0.328149	-0.328149	0.380422	0.380422;
	605	-0.228227	-0.228559	0.0401747	0.0401194;
	607	     0	0	     0	0;
	611	     0	0	     0	0;
	613	-1.791	-1.79374	0.0219019	0.0218715;
	614	-0.136923	-0.136923	0.138586	0.138586;
	616	3.4689	3.4689	-1.11695	-1.11695;
	617	-0.013506	-0.013506	-0.0494909	-0.0494909;
	622	    -0	-0	    -0	-0;
	626	7.58238e-10	-6.54676e-10	7.18108e-10	-6.97886e-10;
	628	0.983291	0.983291	-1.30386	-1.30386;
	630	     0	0	     0	0;
	633	-0.0231811	-0.0231811	0.0119584	0.0119584;
	634	     0	0	     0	0;
	638	-1.69854	-1.69854	-0.328269	-0.328269;
	640	-0.954918	-0.956163	-0.404718	-0.405299;
	643	-0.151442	-0.151655	0.0621742	0.0620829;
	649	-0.125348	-0.125348	0.42415	0.42415;
	653	-0.0941196	-0.0941196	0.05038	0.05038;
	654	-1.5601	-1.5601	1.47907	1.47907;
	660	-3.25137	-3.25137	4.99036	4.99036;
	662	6.72621e-10	-6.80745e-10	6.11435e-10	-7.19762e-10;
	667	     0	0	     0	0;
	668	-0.486837	-0.487456	0.0741254	0.0740212;
	671	     0	0	     0	0;
...
];

%% RTU injection data (confidence intervals around measurements)
%	bus_i	P_MIN	P_MAX	Q_MIN	Q_MAX	V_MIN	V_MAX
mpc.RTU = [
	2	 -0.84212	-0.782989101	0.0644034	0.0691644279	1.02789173	1.03563856;
	3	 -1.56223	-1.46260162	-0.502869	-0.469237625	1.0141093	1.02156898;
	4	 -1.77598	-1.64756606	-0.243051	-0.225685624	1.0170425	1.02418231;
	7	-0.322486	-0.299482039	-0.107003	-0.0995518807	0.965354724	0.97271443;
	8	   4.8028	5.16679991	0.0254645	0.0273398025	1.01909043	1.02674785;
	9	-0.148262	-0.138336355	-0.0207878	-0.0192801081	1.02953586	1.03595207;
	10	 -1.39237	-1.2914764	 -0.25591	-0.238411083	1.02974077	1.03735417;
	17	 -0.69712	-0.649987456	-0.125497	-0.116375892	1.00696766	1.01419885;
	19	-0.261026	-0.245534412	-0.0778608	-0.0720281776	1.00118178	1.00865376;
	20	-0.0144622	-0.013508114	-0.00206387	-0.00192306602	1.02074047	1.02832912;
	21	 -1.67604	-1.54896736	-0.406105	-0.380679384	1.02799414	1.03468585;
	23	-0.202886	-0.18962141	-0.0734143	-0.0688043534	1.02217523	1.02943629;
	25	  3.09593	3.32084094	  1.58638	1.70661199	1.02527337	1.03234187;
	26	  -1.7232	-1.61002177	-0.568302	-0.52973245	1.02630089	1.03301403;
	29	 -1.58585	-1.4770298	-0.512571	-0.478026777	1.00164884	1.00865899;
	32	0.0772777	0.0825550831	 0.353989	0.377858633	0.99965411	1.00623714;
	33	0.0513328	0.0547072067	-0.00335463	-0.00311789892	1.02320745	1.02966539;
	34	-0.140584	-0.130076286	-0.0507802	-0.0474254414	1.02533495	1.03211689;
	35	  -0.1092	-0.101572535	-0.0363356	-0.0339456578	1.02252365	1.02989643;
	37	-0.0955739	-0.0886234047	-0.0270266	-0.0251962734	0.9689261	0.975423576;
	39	 0.331084	0.354418586	0.0493505	0.0532853027	0.999572572	1.00724365;
	40	-0.166288	-0.154017592	-0.0469468	-0.0438420598	0.995141404	1.00272713;
	41	-0.288962	-0.268898574	-0.0413745	-0.0385673574	1.00559841	1.01207866;
	42	-0.214997	-0.200076689	-0.0818255	-0.0765995549	1.03872558	1.04569331;
	45	-0.105025	-0.0976567681	-0.0381853	-0.0355229324	1.04396981	1.05195649;
	46	-0.103759	-0.0965643303	-0.0280061	-0.0260058165	0.955501155	0.961652859;
	47	-0.0654515	-0.0610434353	-3.52167e-08	3.12136774e-08	0.982176864	0.988900284;
	48	-0.0300617	-0.0281216116	-0.00931608	-0.00865540277	1.04228658	1.04894594;
	49	  2.99919	3.19214099	 0.824322	0.878741144	1.01625828	1.02345992;
	50	-0.504505	-0.470307418	-0.0716964	-0.0662469812	1.02110544	1.02858005;
	52	 -1.32386	-1.22657451	-0.327964	-0.30549729	1.01366933	1.02171779;
	53	-0.505201	-0.467614529	-0.167347	-0.15538468	1.04977342	1.05713564;
	54	 -1.14239	-1.06779725	 0.258265	0.278640725	1.02003273	1.02758601;
	56	 -1.44783	-1.34695959	-0.821472	-0.77042868	1.00749791	1.01388086;
	57	-0.224099	-0.207588048	-0.0309823	-0.0290153325	1.00303961	1.01044175;
	59	 -1.22944	-1.14949031	-0.213462	-0.199114248	1.02356772	1.02997812;
	60	-0.0024902	-0.00231419612	0.0159749	0.0171373956	1.02028728	1.02772637;
	63	 -1.94454	-1.80689191	 -1.14328	-1.06459762	1.01566582	1.02249438;
	65	 0.178582	0.191612823	-0.0631581	-0.0591228294	0.917282232	0.923686488;
	66	-0.0476217	-0.0445517868	-0.017514	-0.0164607336	1.07217121	1.08009983;
	68	 -0.11192	-0.104499406	-0.052787	-0.0494514956	0.928864856	0.935728308;
	69	 -0.65319	-0.608307172	-0.211598	-0.197921839	1.01366671	1.02063944;
	72	-0.0713006	-0.0666514778	0.0444413	0.0475975896	1.00414058	1.01084931;
	73	-0.162798	-0.150967045	-0.0539165	-0.0504155809	1.00733321	1.01532955;
	75	-0.400814	-0.374757512	-0.0630527	-0.0590961791	1.01556431	1.02308408;
	76	-0.229097	-0.213326276	-0.110249	-0.103389242	1.01927368	1.02617083;
	79	 -1.44208	-1.33595513	 -1.40979	-1.31275902	1.01038599	1.0179076;
	80	  0.41564	0.445556618	 0.180814	0.193403127	1.06486155	1.07251771;
	81	-0.699493	-0.652377644	-0.198449	-0.184573951	1.00702214	1.01438423;
	82	-0.228349	-0.212748587	-0.052821	-0.0494078578	1.02822239	1.03559815;
	85	-0.215811	-0.20201051	-0.0310775	-0.0290813001	1.01876926	1.02607018;
	88	 -0.74561	-0.693408782	-0.297717	-0.276594355	1.00282375	1.01040444;
	90	 -3.77012	-3.48730125	 -1.19016	-1.11279541	1.03824294	1.04569616;
	92	 -1.98893	-1.85702663	-0.759907	-0.707921667	1.01766872	1.0246416;
	93	 -0.18127	-0.168567889	-0.0650055	-0.0610526191	1.05454548	1.06217192;
	95	-0.420482	-0.392250924	-0.257566	-0.240376788	0.976657821	0.983446535;
	96	 -1.99981	-1.860994	-0.554864	-0.516210039	1.03332148	1.04014158;
	98	-0.940713	-0.877706172	-0.264682	-0.244923023	1.04429306	1.0511266;
	99	 -1.81861	-1.69358946	 0.567597	0.606875781	1.021738	1.02815336;
	100	-0.372125	-0.345599355	-0.229949	-0.214379451	1.03066983	1.03736606;
	104	-0.529543	-0.494603587	0.0846499	0.0913740788	0.961725162	0.96882021;
	107	  5.49653	5.88860537	-0.0691617	-0.0647775354	1.07958124	1.08679617;
	108	-0.0392549	-0.0367777768	-0.0134753	-0.0125817658	1.00214876	1.0083066;
	109	 -1.41776	-1.32237052	-0.201563	-0.187489934	1.00106721	1.00824535;
	111	-0.634749	-0.586627926	-0.372502	-0.347630473	1.04433424	1.05237591;
	116	-0.0185476	-0.0173607011	-0.00726121	-0.00677364856	1.03507095	1.04286849;
	117	-0.413007	-0.385816735	-0.166202	-0.154273658	0.998473403	1.00579239;
	120	 -1.45625	-1.35853194	-0.208076	-0.194198039	1.01436542	1.02165582;
	121	-0.466832	-0.436906678	-0.145306	-0.13536025	1.058278	1.06584507;
	123	 0.241409	0.258955945	  0.19211	0.204903139	1.03833989	1.04519681;
	129	  -1.2594	-1.17032978	-0.0767399	-0.0712784226	1.01613009	1.02319946;
	131	-0.487872	-0.454786816	-0.170219	-0.158233228	1.02873714	1.03598896;
	134	-0.563432	-0.523643591	-0.0808824	-0.0749227015	1.00958003	1.01647589;
	135	 -1.35395	-1.25633886	-0.874571	-0.82180059	1.01870112	1.02517587;
	138	 0.727001	0.783218683	-0.0806741	-0.0751132709	1.06398769	1.07113168;
	141	-0.758592	-0.709717969	0.0954886	0.102866726	1.04743999	1.05390442;
	142	  1.53805	1.63631923	0.0337031	0.036202198	1.0389504	1.04558929;
	146	 -2.78644	-2.60948419	-0.682161	-0.635210862	1.08216581	1.08951423;
	148	-0.334983	-0.313408241	-0.123706	-0.116149493	1.03053411	1.0382591;
	149	 -1.03872	-0.968832208	-0.465364	-0.436487624	1.01834195	1.02536573;
	150	  0.65204	0.693884619	0.00709059	0.00759943111	1.05865777	1.06542752;
	151	  -1.1473	-1.06376402	-0.0696514	-0.0653107362	1.00991302	1.01766515;
	152	-0.0723642	-0.0678592804	-0.0103571	-0.00966757541	1.04671623	1.0536771;
	156	-0.417272	-0.388058117	 -0.25922	-0.241396098	0.949374086	0.956392014;
	157	-0.0955545	-0.0892207067	-0.0340134	-0.0318971539	1.01156936	1.01818509;
	158	 -1.72478	-1.5989382	-0.622514	-0.580786612	1.01133642	1.01809065;
	165	-0.278433	-0.257946572	0.0357725	0.0383420134	1.06970294	1.07679232;
	166	  2.81836	3.03815913	  1.06067	1.13504749	1.03734922	1.04399772;
	168	-0.173061	-0.161169362	-0.024789	-0.023062618	1.02977051	1.03627885;
	172	 -1.16044	-1.0763621	-0.113592	-0.105246681	1.00706487	1.01376486;
	174	 -3.82183	-3.58912618	 0.163566	0.176028351	1.06719822	1.07478182;
	176	0.00665922	0.00716623575	0.0528784	0.0565480371	1.03740708	1.04459083;
	178	-0.842977	-0.779100863	-0.496276	-0.465230125	1.00932362	1.0168293;
	181	-0.567407	-0.531462024	-0.175204	-0.163007394	1.03668709	1.04436983;
	182	-0.200517	-0.187095333	-0.268723	-0.249766248	1.03183808	1.03907157;
	185	 -0.21671	-0.2015232	-0.0310136	-0.0289575027	1.00460168	1.01151566;
	188	-0.379745	-0.355686991	 -0.14352	-0.134427738	1.01139766	1.01840512;
	189	 0.144889	0.156079765	0.0494384	0.0527802752	0.99784083	1.00482948;
	190	 0.876744	0.94045044	 0.303065	0.325820088	1.02244247	1.02961338;
	194	  2.58774	2.78778243	 0.408559	0.437016991	1.02544075	1.03253989;
	195	 -0.75337	-0.705488924	  -0.2227	-0.207585213	1.04509971	1.05303062;
	197	  2.81315	3.01931305	 0.664601	0.713549176	1.09658004	1.10351577;
	200	-0.231082	-0.216446194	-0.0216927	-0.0203396024	1.00722829	1.01492992;
	201	0.0502931	0.053616425	0.0412632	0.0441742489	1.0153321	1.02277508;
	202	 -1.15057	-1.07294628	-0.337728	-0.317140665	1.02479742	1.032561;
	203	-0.188947	-0.175228862	-0.0268523	-0.0250980141	1.03105953	1.03870534;
	205	-0.478945	-0.445138981	-0.187669	-0.175825556	1.01452583	1.02176206;
	206	-0.352508	-0.33004748	-0.127566	-0.118566161	1.05915321	1.06593226;
	207	 -3.32707	-3.10201699	-0.875039	-0.814234673	1.01741768	1.02531633;
	208	-0.344905	-0.323818255	-0.103015	-0.0965950784	1.04309545	1.05008425;
	209	 0.244151	0.262571802	0.0970485	0.103614617	1.02323516	1.0303712;
	211	-0.782336	-0.725297384	-0.199134	-0.186026672	1.02641846	1.03346961;
	212	-0.987435	-0.925506111	-0.253748	-0.237094487	1.02311319	1.03074984;
	213	-0.385978	-0.359160752	-0.113144	-0.10535166	1.00509926	1.01185598;
	216	 -1.60442	-1.50505036	-0.567284	-0.526258191	1.0332004	1.04095013;
	217	 -1.08431	-1.01331376	-0.00103728	-0.000965613431	1.02885804	1.03614017;
	219	  11.3273	12.0705221	  5.90437	6.30092855	1.05333363	1.05988494;
	220	  6.44455	6.9498799	 -1.19526	-1.10572539	1.0432234	1.05080481;
	221	  2.84251	3.07670049	 0.319303	0.342794095	1.02660752	1.0338125;
	222	 -1.52957	-1.42566162	0.0696985	0.074680521	1.02645514	1.03439164;
	223	  -0.2811	-0.260509253	-0.0913519	-0.0845975618	1.02613906	1.03291727;
	224	-0.0268597	-0.0250378122	-0.00515943	-0.00481347102	0.995862826	1.00269559;
	226	-0.150812	-0.141662419	-0.0496293	-0.0461948615	1.02197371	1.02899259;
	228	 0.226774	0.242587804	-0.592409	-0.55368947	1.03595302	1.0434328;
	236	-0.473605	-0.440585775	-0.0724582	-0.0674437419	1.01960173	1.02760605;
	239	-0.0727594	-0.0681709845	  0.23247	0.250032968	1.01517589	1.02199264;
	243	-3.25503e-08	3.42612937e-08	9.6268e-05	0.000103962827	1.01338247	1.02105195;
	245	-0.172456	-0.160963431	-0.0567411	-0.0528514275	1.0076332	1.01424714;
	246	  2.95377	3.17095268	-0.0754847	-0.0699713036	1.06316034	1.07047031;
	248	 -1.78669	-1.65792128	  1.00582	1.08648791	1.04068642	1.04736411;
	251	 -1.22542	-1.13724235	-0.175085	-0.162756611	1.01169396	1.01837728;
	258	 -0.90712	-0.85101371	-0.129859	-0.121006063	1.03235859	1.03931729;
	259	-0.443548	-0.410160362	-0.125643	-0.116596694	1.01164323	1.01838291;
	262	 -1.19105	-1.1171267	  0.33935	0.366381113	1.03036391	1.03755923;
	263	-0.356441	-0.331042568	0.00123412	0.00132710135	1.02528875	1.03244972;
	264	-0.400092	-0.374848437	-0.0934661	-0.0869889304	1.00712494	1.01385204;
	267	 -1.07342	-0.997710554	-0.0279422	-0.0260573556	1.00519068	1.012444;
	268	0.00125973	0.00134619858	0.00962441	0.0103159829	1.03706329	1.0440504;
	274	-0.196655	-0.183496724	-0.0623577	-0.0579256355	1.01251538	1.01974156;
	275	 -1.05676	-0.981296141	-0.261098	-0.244969111	1.01147441	1.01889902;
	278	-0.663577	-0.617022713	0.0897427	0.0963876785	1.01082622	1.01795171;
	279	-0.0860201	-0.0804763629	-0.0309372	-0.0289841203	0.998002029	1.00537555;
	280	 -1.24249	-1.15952563	-0.305547	-0.285305749	1.02837136	1.03525954;
	282	   12.006	12.8617014	 -1.92091	-1.79886623	1.07372773	1.08143772;
	283	-0.283216	-0.264493208	-0.122683	-0.11475943	1.02682151	1.03340356;
	284	 -1.98558	-1.84157889	0.0327641	0.0351399748	1.01795402	1.02522799;
	286	 -1.05489	-0.982517281	-0.149437	-0.139647371	1.01297556	1.02048639;
	287	 -1.83387	-1.71190603	-0.693252	-0.647118057	1.0548491	1.06172163;
	289	  0.50757	0.547696041	-0.0379196	-0.0355776524	1.04349637	1.05075758;
	290	 -0.55414	-0.515776794	-0.193757	-0.180332737	1.0231928	1.03054774;
	292	-0.143325	-0.133514485	-0.0144466	-0.0134620303	1.04086546	1.04895009;
	293	-0.882061	-0.82442444	-0.692973	-0.644714423	1.06763566	1.07579927;
	296	 -1.95549	-1.8210065	-0.795111	-0.739932638	0.989809138	0.996981768;
	297	-0.246298	-0.229912506	-0.0973238	-0.0904322225	1.02920394	1.03591334;
	298	-0.103336	-0.0968233709	 0.202226	0.218069536	1.03777321	1.04456415;
	299	  9.44363	10.0649405	 0.978905	1.05722695	1.0354776	1.04316026;
	301	 0.143897	0.153157785	0.0480045	0.0512506698	1.01360881	1.0199021;
	302	 -0.21661	-0.200732302	-0.0309306	-0.028909395	1.0210515	1.027892;
	303	 -4.48337	-4.14704013	 -1.25616	-1.16879351	1.00526836	1.01181852;
	309	 0.918095	0.981087973	 0.372982	0.39949895	0.985355382	0.992735402;
	311	-0.435963	-0.404276711	-0.177372	-0.165676127	1.01570554	1.02233176;
	312	0.00154227	0.00165972602	0.0280172	0.0299897185	1.0599282	1.06751912;
	313	0.0929964	0.0995139705	-0.0170395	-0.0159896509	1.02181877	1.02918939;
	314	 -1.68038	-1.57565992	-0.481072	-0.4483982	0.996115735	1.00226446;
	321	-0.697571	-0.646594639	 0.229838	0.248057666	1.04312817	1.05087343;
	328	-0.803294	-0.751776337	 0.138545	0.149978417	1.01414679	1.02096791;
	329	-0.250382	-0.232812392	-0.0733377	-0.0685170104	1.01555497	1.02327595;
	333	 -5.44512	-5.05364758	-0.444475	-0.415985472	1.00611886	1.01307458;
	337	-0.0950867	-0.0888806837	-0.0123982	-0.0115210019	1.07070053	1.07790644;
	338	 0.806812	0.86606401	0.0333906	0.0354710631	1.04323533	1.05082638;
	340	  -1.9262	-1.809203	-0.588433	-0.546303177	1.06242098	1.07068612;
	342	-0.365863	-0.342807674	-0.210658	-0.195545537	1.00526361	1.01214744;
	343	-0.0332733	-0.0307466191	-0.0124343	-0.0115929986	1.04018541	1.04787832;
	347	 0.491938	0.526526834	-0.137083	-0.128150096	1.01734067	1.02481472;
	348	  1.55533	1.65642818	0.0326483	0.0350919435	1.05387738	1.06149104;
	350	 -1.14369	-1.07031238	-0.272016	-0.252410151	1.03462332	1.04230722;
	352	  12.0438	12.9515025	   2.6151	2.7953375	1.0447038	1.05262898;
	355	 0.047111	0.0504599391	 0.020673	0.0221586719	0.99157227	0.997945646;
	358	-0.143632	-0.134438908	-0.0196152	-0.0182794604	1.02969541	1.03688704;
	362	-0.506771	-0.470651965	-0.150768	-0.140005993	1.00921546	1.01580684;
	364	-0.103906	-0.0968035625	-0.0412473	-0.0387453801	1.00520765	1.0123002;
	366	  1.79221	1.93023954	    0.637	0.688409525	1.00523953	1.01202041;
	367	-0.672246	-0.626249324	 0.495368	0.531372487	1.06223748	1.0693242;
	370	-0.586511	-0.547780028	-0.240142	-0.223072446	1.01315585	1.01967163;
	372	-0.567636	-0.528510074	 0.657953	0.705394081	1.0715205	1.07841364;
	376	-0.000103328	-9.61944623e-05	-3.30621e-08	3.29505426e-08	1.02764783	1.03461259;
	377	0.00173054	0.00186010138	0.0096462	0.010323967	1.0177754	1.02526989;
	378	 -2.29218	-2.1366207	-0.535288	-0.502325034	1.01419195	1.02054741;
	380	  0.92755	0.98978739	0.0269605	0.0288531798	0.997843569	1.00459455;
	382	 0.247284	0.265938577	 0.212961	0.22808879	1.05699754	1.06497824;
	383	-0.196973	-0.184259339	-0.118724	-0.111279908	0.98772097	0.994902481;
	387	0.00182943	0.00196619151	 0.042054	0.0452349419	1.03960352	1.04749671;
	391	-0.360766	-0.338830995	-0.223409	-0.20831803	0.976271506	0.983105104;
	392	 -1.38726	-1.2901423	-0.352409	-0.33153374	1.00814611	1.01506458;
	393	-0.184194	-0.171775098	-0.0608271	-0.0571169092	1.0589015	1.06631429;
	394	  23.3186	24.8458359	-0.092572	-0.0859375957	1.05995452	1.06667375;
	397	-0.806986	-0.748855401	 0.395005	0.422244182	1.03078019	1.03764014;
	398	-0.123623	-0.114474175	-0.039265	-0.0364963071	0.974184111	0.981018503;
	399	-0.0516392	-0.0485275803	-0.020708	-0.0193958182	1.01076109	1.01730517;
	400	 0.190276	0.203621397	 0.104793	0.11259787	1.00418546	1.01078624;
...
];

%% generator data
%	bus	Pg	Qg	Qmax	Qmin	Vg	mBase	status	Pmax	Pmin	Pc1	Pc2	Qc1min	Qc1max	Qc2min	Qc2max	ramp_agc	ramp_10	ramp_30	ramp_q	apf
mpc.gen = [
	2	-81.4	6.67278665	42.19	-20.45	1.031734	100	1	100	-108.53	0	0	0	0	0	0	0	0	0	0	0;
	6	701	221.305204	524.53	-211.57	1.038476	100	1	1200	400	0	0	0	0	0	0	0	0	0	0	0;
	8	499.7	2.64656991	251.73	-246.25	1.023005	100	1	524.68	0	0	0	0	0	0	0	0	0	0	0	0;
	18	467.5	219.654288	212.97	-93.48	1.026728	100	1	500	166.67	0	0	0	0	0	0	0	0	0	0	0;
	25	319.6	164.622621	179.43	-66.21	1.028526	100	1	400	0	0	0	0	0	0	0	0	0	0	0	0;
	32	8	36.6158858	5.91	-4.56	1.003223	100	1	16.2	0	0	0	0	0	0	0	0	0	0	0	0;
	33	5.3	-0.324607191	2.27	-1.08	1.026534	100	1	5.38	0	0	0	0	0	0	0	0	0	0	0	0;
	39	34.3	5.12514329	17.76	-7.14	1.003511	100	1	40	0	0	0	0	0	0	0	0	0	0	0	0;
	49	309.2	84.9845881	218.52	-75.97	1.020323	100	1	480	0	0	0	0	0	0	0	0	0	0	0	0;
	51	-144.5	3.97065677	5.48	-4.19	1.006665	100	1	100	-192.67	0	0	0	0	0	0	0	0	0	0	0;
	80	43.2	18.6679483	139.94	-43.78	1.068393	100	1	100	28.8	0	0	0	0	0	0	0	0	0	0	0;
	107	570	-6.70062884	253.85	-113.79	1.083135	100	1	600	200	0	0	0	0	0	0	0	0	0	0	0;
	123	24.9	19.8447366	18.84	-6.06	1.041503	100	1	40	0	0	0	0	0	0	0	0	0	0	0	0;
	124	861.3	69.2692578	440.32	-172.59	1.077112	100	1	1000	333.33	0	0	0	0	0	0	0	0	0	0	0;
	141	-73.2	9.94338244	18.59	-6.33	1.050716	100	1	100	-97.6	0	0	0	0	0	0	0	0	0	0	0;
	142	158.7	3.49657614	78.15	-32.4	1.042299	100	1	180	0	0	0	0	0	0	0	0	0	0	0	0;
	147	-16	15.8112028	70.12	-29.5	1.058041	100	1	100	-21.33	0	0	0	0	0	0	0	0	0	0	0;
	150	67.29	0.732530659	77.09	-22.54	1.062129	100	1	160	0	0	0	0	0	0	0	0	0	0	0	0;
	151	-110.35	-6.73995611	37.97	-58.18	1.013748	100	1	100	-147.13	0	0	0	0	0	0	0	0	0	0	0;
	166	292.2	109.40458	127.67	-56.53	1.040747	100	1	300	0	0	0	0	0	0	0	0	0	0	0	0;
	179	-179.2	113.006939	52.64	-51.72	1.043661	100	1	100	-238.93	0	0	0	0	0	0	0	0	0	0	0;
	190	90.69	31.4034134	54.24	-20.63	1.025544	100	1	120	0	0	0	0	0	0	0	0	0	0	0	0;
	192	135.8	13.0147144	91.61	-30.98	1.048355	100	1	200	0	0	0	0	0	0	0	0	0	0	0	0;
	194	268.6	42.2911338	130.19	-53.53	1.02931	100	1	300	100	0	0	0	0	0	0	0	0	0	0	0;
	197	292.2	69.0458824	123.89	-59.54	1.099985	100	1	300	0	0	0	0	0	0	0	0	0	0	0	0;
	201	5.2	4.27619911	2.27	-1.07	1.01914	100	1	5.37	0	0	0	0	0	0	0	0	0	0	0	0;
	209	25.4	10.0559708	18.7	-6.17	1.026832	100	1	40	0	0	0	0	0	0	0	0	0	0	0	0;
	214	-175.2	87.8388918	192	-52.89	1.079765	100	1	100	-233.6	0	0	0	0	0	0	0	0	0	0	0;
	219	1171	610.012377	937.43	-288.16	1.056623	100	1	2000	666.67	0	0	0	0	0	0	0	0	0	0	0;
	220	668.7	-114.968045	402.92	-146.95	1.047116	100	1	900	300	0	0	0	0	0	0	0	0	0	0	0;
	221	296	33.0575917	183.92	-65.3	1.030636	100	1	400	133.33	0	0	0	0	0	0	0	0	0	0	0;
	222	-147.3	7.24681706	12.51	-5.62	1.030494	100	1	100	-196.4	0	0	0	0	0	0	0	0	0	0	0;
	239	-7.05	24.0897789	38.52	-11.24	1.018711	100	1	100	-9.4	0	0	0	0	0	0	0	0	0	0	0;
	246	307.1	-7.27562285	378.08	-112.59	1.06685	100	1	800	266.67	0	0	0	0	0	0	0	0	0	0	0;
	248	-172	104.491334	37.47	-12.35	1.043991	100	1	100	-229.33	0	0	0	0	0	0	0	0	0	0	0;
	255	423.2	-31.0846811	220.66	-85.89	1.059597	100	1	500	166.67	0	0	0	0	0	0	0	0	0	0	0;
	262	-115.4	35.2960743	38.1	-11.72	1.033795	100	1	100	-153.87	0	0	0	0	0	0	0	0	0	0	0;
	263	-34.4	0.128055411	5.05	-6.95	1.028681	100	1	100	-45.87	0	0	0	0	0	0	0	0	0	0	0;
	278	-64.1	9.32413734	37.7	-12.09	1.014153	100	1	100	-85.47	0	0	0	0	0	0	0	0	0	0	0;
	282	1245.7	-185.45768	924.64	-300.35	1.077605	100	1	2000	666.67	0	0	0	0	0	0	0	0	0	0	0;
	289	52.7	-3.67825659	26.02	-10.81	1.046783	100	1	60	0	0	0	0	0	0	0	0	0	0	0	0;
	294	250	25.7427689	45.1	-21.32	1.003375	100	1	480	160	0	0	0	0	0	0	0	0	0	0	0;
	299	975.9	101.659706	721.25	-258.71	1.039248	100	1	1600	533.33	0	0	0	0	0	0	0	0	0	0	0;
	309	95.1	38.77272	42.62	-18.72	0.989085	100	1	100	0	0	0	0	0	0	0	0	0	0	0	0;
	310	346.18	662.187573	99999	-99999	1.155322	100	1	700	200	0	0	0	0	0	0	0	0	0	0	0;
	313	9.6	-1.64989225	4.83	-7.17	1.025259	100	1	10.08	0	0	0	0	0	0	0	0	0	0	0	0;
	320	1760	-209.981986	320.04	-843.96	1.013336	100	1	1812	604	0	0	0	0	0	0	0	0	0	0	0;
	324	94	40.1646175	95.32	-27.29	1.063285	100	1	200	0	0	0	0	0	0	0	0	0	0	0	0;
	325	-21.4	5.64896006	1.93	-1.01	1.009625	100	1	100	-28.53	0	0	0	0	0	0	0	0	0	0	0;
	328	-77.9	14.4280034	188.91	-56.14	1.017618	100	1	100	-103.87	0	0	0	0	0	0	0	0	0	0	0;
	338	83.7	3.4436528	55.54	-19.16	1.046957	100	1	120	0	0	0	0	0	0	0	0	0	0	0	0;
	347	50.8	-13.2412944	33.33	-42.67	1.020949	100	1	53.42	0	0	0	0	0	0	0	0	0	0	0	0;
	348	160.4	3.38605269	110.57	-36.9	1.057894	100	1	240	0	0	0	0	0	0	0	0	0	0	0	0;
	352	1250.4	269.78085	926.35	-297.68	1.048835	100	1	2000	666.67	0	0	0	0	0	0	0	0	0	0	0;
	361	238.3	53.0782805	186.39	-58.5	1.05949	100	1	400	133.33	0	0	0	0	0	0	0	0	0	0	0;
	366	185.6	66.1964971	61.97	-120.27	1.008853	100	1	196	65.33	0	0	0	0	0	0	0	0	0	0	0;
	372	-54.9	67.9771202	282.95	-84.3	1.074991	100	1	100	-73.2	0	0	0	0	0	0	0	0	0	0	0;
	382	25.68	21.9732422	38.4	-11.44	1.060853	100	1	80	0	0	0	0	0	0	0	0	0	0	0	0;
	389	69	17.9159031	56.73	-17.84	1.017731	100	1	120	0	0	0	0	0	0	0	0	0	0	0	0;
	394	2404.4	-8.93666443	1224.26	-490.17	1.063147	100	1	2800	933.33	0	0	0	0	0	0	0	0	0	0	0;
	406	31	11.7191137	22.22	-17.35	1.012399	100	1	61.23	0	0	0	0	0	0	0	0	0	0	0	0;
	409	-62	-4.5850685	24.32	-29.67	1.032831	100	1	100	-82.67	0	0	0	0	0	0	0	0	0	0	0;
	411	35.9	5.84954195	17.66	-7.27	1.03248	100	1	40	0	0	0	0	0	0	0	0	0	0	0	0;
	413	231	28.5584322	124.12	-49.84	1.048421	100	1	280	0	0	0	0	0	0	0	0	0	0	0	0;
	423	-19.2	1.91247306	5.22	-2.6	1.030299	100	1	100	-25.6	0	0	0	0	0	0	0	0	0	0	0;
	424	636.3	291.317973	304.38	-125.48	1.051241	100	1	700	233.33	0	0	0	0	0	0	0	0	0	0	0;
	433	436	202.911503	217.18	-89.22	1.024885	100	1	500	166.67	0	0	0	0	0	0	0	0	0	0	0;
	434	-2.8	4.16374155	2.75	-3.25	1.037999	100	1	100	-3.73	0	0	0	0	0	0	0	0	0	0	0;
	438	74	12.7832063	45.1	-16.18	1.038705	100	1	100	0	0	0	0	0	0	0	0	0	0	0	0;
	439	308.6	-38.5941224	175.16	-69.21	1.072491	100	1	400	0	0	0	0	0	0	0	0	0	0	0	0;
	440	83.1	1.71816417	55.73	-19.01	1.028093	100	1	120	0	0	0	0	0	0	0	0	0	0	0	0;
	442	-40.35	5.456501	1.95	-0.93	1.011727	100	1	100	-53.8	0	0	0	0	0	0	0	0	0	0	0;
	447	37.7	3.56196383	16.84	-8.04	1.035215	100	1	40	0	0	0	0	0	0	0	0	0	0	0	0;
	452	-56.8	17.6288843	37.86	-11.94	1.013382	100	1	100	-75.73	0	0	0	0	0	0	0	0	0	0	0;
	453	260.1	77.3986117	257.23	-74.4	1.024712	100	1	540	0	0	0	0	0	0	0	0	0	0	0	0;
	456	-28.08	-11.3531684	44.8	-39.81	0.999847	100	1	100	-37.44	0	0	0	0	0	0	0	0	0	0	0;
	484	229.5	0.641172039	132.41	-50.85	1.054091	100	1	300	0	0	0	0	0	0	0	0	0	0	0	0;
	489	-107.4	2.38251079	6.28	-4.82	1.008032	100	1	100	-143.2	0	0	0	0	0	0	0	0	0	0	0;
	491	105.4	112.358539	94.56	-28.1	1.033193	100	1	200	0	0	0	0	0	0	0	0	0	0	0	0;
	505	110.6	-13.3449851	37.34	-58.33	1.022173	100	1	116.03	0	0	0	0	0	0	0	0	0	0	0	0;
	511	101.4	164.384724	94.38	-28.04	1.081589	100	1	200	0	0	0	0	0	0	0	0	0	0	0	0;
	515	324.82	-120.487644	72.5	-27.24	1.045162	100	1	700	200	0	0	0	0	0	0	0	0	0	0	0;
	516	539.4	184.078763	261.79	-106.67	1.07129	100	1	600	200	0	0	0	0	0	0	0	0	0	0	0;
	518	-410.3	46.0585115	85.63	-37.21	1.067615	100	1	100	-547.07	0	0	0	0	0	0	0	0	0	0	0;
	524	69	-12.9944487	30.15	-43.07	1.046979	100	1	72.45	0	0	0	0	0	0	0	0	0	0	0	0;
	541	118.2	-13.3498267	7.81	-27.19	1.03819	100	1	124.19	0	0	0	0	0	0	0	0	0	0	0	0;
	564	-51.67	6.56365923	18.47	-19.35	1.06702	100	1	100	-68.89	0	0	0	0	0	0	0	0	0	0	0;
	578	-110.3	12.7744063	25.88	-11.01	1.042146	100	1	100	-147.07	0	0	0	0	0	0	0	0	0	0	0;
	583	-270	6.85952515	17.88	-7.03	1.048595	100	1	100	-360	0	0	0	0	0	0	0	0	0	0	0;
	587	246	2.04143679	185.56	-59.39	1.040079	100	1	400	133.33	0	0	0	0	0	0	0	0	0	0	0;
	590	100.7	156.069269	380.31	-110.08	1.065004	100	1	300	67.13	0	0	0	0	0	0	0	0	0	0	0;
	615	38.2	2.91334112	17.09	-7.79	1.068592	100	1	40	0	0	0	0	0	0	0	0	0	0	0	0;
	616	379.2	34.5393083	217.9	-81.16	1.04484	100	1	480	160	0	0	0	0	0	0	0	0	0	0	0;
	618	670.3	6.04208953	351.18	-139.11	1.022784	100	1	800	266.67	0	0	0	0	0	0	0	0	0	0	0;
	628	152.4	49.9478334	78.79	-31.69	0.982057	100	1	180	0	0	0	0	0	0	0	0	0	0	0	0;
	636	101.89	4.71989741	52.99	-21.87	1.04241	100	1	120	0	0	0	0	0	0	0	0	0	0	0	0;
	637	21.3	0.919534692	11.2	-8.44	1.031148	100	1	22.32	0	0	0	0	0	0	0	0	0	0	0	0;
	639	-46.2	120.28012	135.52	-38.9	1.033532	100	1	100	-61.6	0	0	0	0	0	0	0	0	0	0	0;
	642	63.33	2.24251085	90.13	-93.03	1.031368	100	1	276.09	0	0	0	0	0	0	0	0	0	0	0	0;
	648	47.2	5.31614263	37.95	-11.87	1.02749	100	1	80	0	0	0	0	0	0	0	0	0	0	0	0;
	672	67	-0.714539288	71.32	-62.92	1.02121	100	1	205.81	0	0	0	0	0	0	0	0	0	0	0	0;
	682	37.4	8.62298294	38.77	-11.06	1.060787	100	1	80	0	0	0	0	0	0	0	0	0	0	0	0;
	686	-21.65	-4.21076345	34.75	-34.26	1.013903	100	1	100	-28.86	0	0	0	0	0	0	0	0	0	0	0;
	692	274.8	-4.69262853	182.17	-62.79	1.059006	100	1	400	133.33	0	0	0	0	0	0	0	0	0	0	0;
	697	634.8	29.9212672	357.4	-132.75	1.031719	100	1	800	266.67	0	0	0	0	0	0	0	0	0	0	0;
	698	274.8	14.3739139	129.94	-53.91	0.999662	100	1	300	100	0	0	0	0	0	0	0	0	0	0	0;
	709	16	61.5848304	22.23	-20.83	1.068875	100	1	65.3	0	0	0	0	0	0	0	0	0	0	0	0;
	711	27.8	84.0459957	377.01	-113.63	1.070147	100	1	100	18.53	0	0	0	0	0	0	0	0	0	0	0;
	713	99.3	8.52577707	53.98	-20.79	1.034791	100	1	120	0	0	0	0	0	0	0	0	0	0	0	0;
	714	453.4	77.7838363	376.36	-114.08	1.065017	100	1	800	266.67	0	0	0	0	0	0	0	0	0	0	0;
	715	323.1	50.9679254	66.42	-179.95	1.021604	100	1	366	122	0	0	0	0	0	0	0	0	0	0	0;
	727	384.26	-20.5469723	379.61	-111.09	1.070143	100	1	800	266.67	0	0	0	0	0	0	0	0	0	0	0;
	728	70.8	-16.4813762	35.73	-44.31	1.030375	100	1	74.28	0	0	0	0	0	0	0	0	0	0	0	0;
	735	170	-22.9638117	89.94	-122.06	1.026593	100	1	178.5	0	0	0	0	0	0	0	0	0	0	0	0;
	738	90.79	48.6184914	107.86	-95.15	1.033376	100	1	311.39	34.6	0	0	0	0	0	0	0	0	0	0	0;
	739	465.7	79.2125367	212.97	-93.45	1.035442	100	1	500	166.67	0	0	0	0	0	0	0	0	0	0	0;
	749	198.88	7.0069935	105.69	-43.84	1.053546	100	1	240	0	0	0	0	0	0	0	0	0	0	0	0;
	751	65.9	12.309465	136.94	-47.24	1.020488	100	1	300	0	0	0	0	0	0	0	0	0	0	0	0;
	757	116.7	118.645929	51.3	-23.41	1.013994	100	1	120	0	0	0	0	0	0	0	0	0	0	0	0;
	763	37.3	6.02362246	27.88	-8.97	1.042899	100	1	60	0	0	0	0	0	0	0	0	0	0	0	0;
	764	138.3	16.7698889	174.17	-71.12	1.048246	100	1	400	133.33	0	0	0	0	0	0	0	0	0	0	0;
	765	170.7	20.1377	76.76	-33.84	1.017174	100	1	180	0	0	0	0	0	0	0	0	0	0	0	0;
	774	134.4	-6.67259532	81.57	-60.74	1.038992	100	1	141.12	0	0	0	0	0	0	0	0	0	0	0	0;
	776	-111.4	9.20885112	18.16	-6.73	1.023986	100	1	100	-148.53	0	0	0	0	0	0	0	0	0	0	0;
	778	16.5	4.77660451	12.37	-9.36	1.047837	100	1	33.58	0	0	0	0	0	0	0	0	0	0	0	0;
	779	37.8	11.2608851	17.34	-7.58	1.039304	100	1	45	0	0	0	0	0	0	0	0	0	0	0	0;
	780	50.8	17.2370913	37.43	-12.32	1.001975	100	1	80	0	0	0	0	0	0	0	0	0	0	0	0;
	791	569.74	10.1389638	567.63	-167.48	1.052091	100	1	1200	400	0	0	0	0	0	0	0	0	0	0	0;
	795	58.4	7.51115226	36.75	-13.04	1.041931	100	1	80	0	0	0	0	0	0	0	0	0	0	0	0;
	796	31.6	21.8923039	39	-10.74	1.01604	100	1	80	0	0	0	0	0	0	0	0	0	0	0	0;
	803	-89.2	19.3040517	74.03	-25.54	1.04662	100	1	100	-118.93	0	0	0	0	0	0	0	0	0	0	0;
	807	1597.5	-20.9176273	864.47	-360.97	1.053518	100	1	2000	666.67	0	0	0	0	0	0	0	0	0	0	0;
	813	505.6	72.0547484	309.08	-290.93	1.037003	100	1	602	200.67	0	0	0	0	0	0	0	0	0	0	0;
	823	1274.2	287.969691	926.68	-298.31	1.039055	100	1	2000	666.67	0	0	0	0	0	0	0	0	0	0	0;
	828	55.9	-11.5610019	20.87	-22.43	1.044382	100	1	58.7	0	0	0	0	0	0	0	0	0	0	0	0;
	831	85.2	16.1086162	55.59	-19.18	1.003271	100	1	120	0	0	0	0	0	0	0	0	0	0	0	0;
	832	507	143.242823	264.71	-102.83	1.004583	100	1	600	200	0	0	0	0	0	0	0	0	0	0	0;
	837	44	10.0969566	27.19	-9.66	1.022737	100	1	60	0	0	0	0	0	0	0	0	0	0	0	0;
	844	97.5	33.5002476	54.35	-20.47	1.064419	100	1	120	0	0	0	0	0	0	0	0	0	0	0	0;
	848	4.03	-4.92283776	49.63	-38.12	1.011431	100	1	100	2.69	0	0	0	0	0	0	0	0	0	0	0;
	849	8.7	59.7154921	6.45	-4.91	1.037264	100	1	17.57	0	0	0	0	0	0	0	0	0	0	0	0;
	851	59.56	42.7429614	96.64	-27.81	1.018845	100	1	200	0	0	0	0	0	0	0	0	0	0	0	0;
	858	855.6	163.393386	440.67	-172.15	1.028813	100	1	1000	333.33	0	0	0	0	0	0	0	0	0	0	0;
	861	55.8	10.9798467	57.98	-16.68	1.050818	100	1	120	0	0	0	0	0	0	0	0	0	0	0	0;
	875	343.5	49.0058959	228.16	-78.19	1.038959	100	1	500	166.67	0	0	0	0	0	0	0	0	0	0	0;
	888	181.98	5.91214412	138.6	-45.27	1.037604	100	1	300	100	0	0	0	0	0	0	0	0	0	0	0;
	891	1702.8	706.796128	1097.41	-373.91	1.062964	100	1	2400	800	0	0	0	0	0	0	0	0	0	0	0;
	894	264.67	70.2071355	141.93	-57.74	1.054199	100	1	320	0	0	0	0	0	0	0	0	0	0	0	0;
	896	-2.7	-2.2284873	8.6	-11.4	1.021987	100	1	100	-3.6	0	0	0	0	0	0	0	0	0	0	0;
	913	1249.4	710.140129	772.11	-269.94	1.026545	100	1	1700	566.67	0	0	0	0	0	0	0	0	0	0	0;
	916	230.2	-20.6211559	134.45	-49.76	1.022135	100	1	300	0	0	0	0	0	0	0	0	0	0	0	0;
	917	32	4.73709736	18.22	-6.73	1.061631	100	1	40	0	0	0	0	0	0	0	0	0	0	0	0;
	926	420	123.03722	201.12	-87.96	1.008066	100	1	472	157.33	0	0	0	0	0	0	0	0	0	0	0;
	927	27.4	-1.22698876	28.69	-8.16	1.067901	100	1	60	0	0	0	0	0	0	0	0	0	0	0	0;
	930	679.6	-65.7127514	406.66	-144.75	1.058189	100	1	900	300	0	0	0	0	0	0	0	0	0	0	0;
	972	1221.2	416.306835	934.73	-291.52	1.078612	100	1	2000	666.67	0	0	0	0	0	0	0	0	0	0	0;
	974	83.89	19.3359074	54.36	-20.21	1.033045	100	1	120	0	0	0	0	0	0	0	0	0	0	0	0;
	976	21.3	35.4366027	36.02	-35.35	1.024328	100	1	107.83	0	0	0	0	0	0	0	0	0	0	0	0;
	978	14.9	0.309939754	6.43	-2.99	1.017319	100	1	15.15	0	0	0	0	0	0	0	0	0	0	0	0;
	983	1034.8	-153.312146	948.36	-277.27	1.078039	100	1	2000	666.67	0	0	0	0	0	0	0	0	0	0	0;
	984	1029.2	12.1683174	738.93	-240.84	1.031963	100	1	1600	533.33	0	0	0	0	0	0	0	0	0	0	0;
	991	21.68	4.68801536	16.83	-8.05	1.001634	100	1	40	0	0	0	0	0	0	0	0	0	0	0	0;
	992	14.96	19.8674832	25.97	-10.87	1.030255	100	1	60	0	0	0	0	0	0	0	0	0	0	0	0;
	993	-136.9	36.4209249	17.85	-7.07	1.037248	100	1	100	-182.53	0	0	0	0	0	0	0	0	0	0	0;
	1001	92.1	53.646971	55.02	-19.81	1.069874	100	1	120	0	0	0	0	0	0	0	0	0	0	0	0;
	1002	171	10.7913393	89.55	-35.15	1.03837	100	1	200	0	0	0	0	0	0	0	0	0	0	0	0;
	1004	86.4	35.7520913	43.99	-17.4	0.99944	100	1	100	0	0	0	0	0	0	0	0	0	0	0	0;
	1021	-179.3	22.1356403	58.34	-16.23	1.012345	100	1	100	-239.07	0	0	0	0	0	0	0	0	0	0	0;
	1029	138.6	11.5901768	90.64	-31.73	1.037886	100	1	200	0	0	0	0	0	0	0	0	0	0	0	0;
	1030	164.94	19.4357751	71.66	-27.89	1.007808	100	1	400	100	0	0	0	0	0	0	0	0	0	0	0;
	1036	202.5	2.3014836	137.39	-46.45	1.037074	100	1	300	100	0	0	0	0	0	0	0	0	0	0	0;
	1043	829.5	49.5899172	387.88	-163.4	1.027465	100	1	900	300	0	0	0	0	0	0	0	0	0	0	0;
	1050	337.91	14.2285756	173.5	-71.79	1.055375	100	1	518.72	252.05	0	0	0	0	0	0	0	0	0	0	0;
	1082	364.4	60.870304	171.62	-73.5	1.027941	100	1	400	133.33	0	0	0	0	0	0	0	0	0	0	0;
	1083	91.8	8.17729391	54.91	-19.88	1.050507	100	1	120	0	0	0	0	0	0	0	0	0	0	0	0;
	1088	4.6	5.03478614	8.06	-3.66	1.025882	100	1	45.99	0	0	0	0	0	0	0	0	0	0	0	0;
	1093	837	96.5847503	550.69	-185.15	1.024587	100	1	1200	400	0	0	0	0	0	0	0	0	0	0	0;
	1097	17.5	3.19883022	6.17	-6.64	1.013606	100	1	18.38	0	0	0	0	0	0	0	0	0	0	0	0;
	1098	93.35	-17.2827784	91.42	-31.24	1.104358	100	1	200	66.67	0	0	0	0	0	0	0	0	0	0	0;
	1100	58.2	6.48309896	36.8	-13.01	1.042301	100	1	80	0	0	0	0	0	0	0	0	0	0	0	0;
	1102	-124.15	21.8671215	38.05	-11.59	1.048163	100	1	100	-165.54	0	0	0	0	0	0	0	0	0	0	0;
	1103	405.69	38.1637694	376.66	-112.66	1.043526	100	1	800	266.67	0	0	0	0	0	0	0	0	0	0	0;
	1117	744.1	-238.998847	307.47	-487.11	1.009173	100	1	864	288	0	0	0	0	0	0	0	0	0	0	0;
	1119	298.7	-2.15910253	126.49	-57.33	1.044725	100	1	300	100	0	0	0	0	0	0	0	0	0	0	0;
	1121	289.79	-3.13989341	158.2	-62.81	1.017488	100	1	360	0	0	0	0	0	0	0	0	0	0	0	0;
	1122	75.2	11.7189627	68	-56.08	1.043868	100	1	190.28	0	0	0	0	0	0	0	0	0	0	0	0;
	1125	129.6	21.3805284	114.57	-34.74	1.04319	100	1	240	0	0	0	0	0	0	0	0	0	0	0	0;
	1131	667.5	109.190266	407.66	-143.61	1.036981	100	1	900	300	0	0	0	0	0	0	0	0	0	0	0;
	1138	930.3	95.305434	432.44	-180.7	1.088765	100	1	1000	333.33	0	0	0	0	0	0	0	0	0	0	0;
	1139	175.48	49.6764947	107.89	-41.5	1.054186	100	1	240	0	0	0	0	0	0	0	0	0	0	0	0;
	1145	173.47	-60.9731529	153.07	-144.24	1.040382	100	1	452.53	37.71	0	0	0	0	0	0	0	0	0	0	0;
	1173	-124.7	3.41957843	1.85	-0.88	1.018544	100	1	100	-166.27	0	0	0	0	0	0	0	0	0	0	0;
...